LTspice 24.1.10 for Windows
Circuit: E:\Marcos\Estudos\Cursos\Engenharia da Computação - UEMG\Circuitos elétrico-eletrônicos II\Trabalho computacional 2\Circuito.net
Start Time: Wed Nov 12 13:25:59 2025
solver = Normal
Maximum thread count: 12
tnom = 27
temp = 27
method = trap
Direct Newton iteration for .op point succeeded.
Changing Tseed to 4.88281e-11
Changing Tseed to 4.88281e-13
Changing Tseed to 4.88281e-10
Total elapsed time: 0.275 seconds.

Files loaded:
E:\Marcos\Estudos\Cursos\Engenharia da Computação - UEMG\Circuitos elétrico-eletrônicos II\Trabalho computacional 2\Circuito.net
C:\Users\marco\AppData\Local\LTspice\lib\cmp\standard.bjt

vi_pp: PP(V(vi))=0.049967645336 FROM 0 TO 0.0005
vo_pp: PP(V(vo))=2.65124972989 FROM 0 TO 0.0005
